/*--------------------------------*- C++ -*----------------------------------*\
| =========                 |                                                 |
| \\      /  F ield         | OpenFOAM: The Open Source CFD Toolbox           |
|  \\    /   O peration     | Version:  v1912                                 |
|   \\  /    A nd           | Website:  www.openfoam.com                      |
|    \\/     M anipulation  |                                                 |
\*---------------------------------------------------------------------------*/
FoamFile
{
    version     2.0;
    format      ascii;
    class       polyBoundaryMesh;
    location    "constant/polyMesh";
    object      boundary;
}
// * * * * * * * * * * * * * * * * * * * * * * * * * * * * * * * * * * * * * //

4
(
    ZeroGradientPlanes
    {
        type            patch;
        nFaces          220;
        startFace       19000;
    }
    Inlet
    {
        type            patch;
        nFaces          80;
        startFace       19220;
    }
    Plate
    {
        type            wall;
        inGroups        1(wall);
        nFaces          100;
        startFace       19300;
    }
    FrontAndBack
    {
        type            empty;
        inGroups        1(empty);
        nFaces          19200;
        startFace       19400;
    }
)

// ************************************************************************* //
